/*--------------------------------*- C++ -*----------------------------------*\
  =========                 |
  \\      /  F ield         | OpenFOAM: The Open Source CFD Toolbox
   \\    /   O peration     | Website:  https://openfoam.org
    \\  /    A nd           | Version:  8
     \\/     M anipulation  |
\*---------------------------------------------------------------------------*/
FoamFile
{
    version     2.0;
    format      ascii;
    class       dictionary;
    object      fvSolution;
}
// * * * * * * * * * * * * * * * * * * * * * * * * * * * * * * * * * * * * * //

solvers //OK
{
    "(h|e)"
    {
        solver           PCG;
        preconditioner   DIC;
        tolerance        1e-06;
        relTol           0.1;
    }

    "(h|e)Final"
    {
        $h;
        relTol           0;
    }
}

PIMPLE  // OK
{
    nNonOrthogonalCorrectors 0;
}

relaxationFactors   //OK
{
    equations
    {
        ".*" 0.7;   // 1
    }
}

// ************************************************************************* //
